Version 4.1
SHEET 1 880 680
WIRE -1200 -336 -1200 -400
WIRE 176 -128 -304 -128
WIRE -896 -64 -992 -64
WIRE -784 -64 -816 -64
WIRE -656 -64 -704 -64
WIRE -608 -64 -656 -64
WIRE -304 -64 -304 -128
WIRE -304 -64 -528 -64
WIRE -992 -32 -992 -64
WIRE -128 16 -384 16
WIRE -1200 32 -1200 -256
WIRE -752 96 -752 32
WIRE -208 96 -208 -48
WIRE -1200 128 -1200 112
WIRE -1088 128 -1200 128
WIRE -656 128 -656 -64
WIRE -656 128 -752 128
WIRE -128 128 -128 16
WIRE -128 128 -208 128
WIRE 128 144 64 144
WIRE 288 144 272 144
WIRE -880 160 -992 160
WIRE -848 160 -880 160
WIRE -384 160 -384 16
WIRE -304 160 -384 160
WIRE -64 160 -160 160
WIRE 128 160 128 144
WIRE 176 160 176 -128
WIRE 176 160 128 160
WIRE 272 160 272 144
WIRE 272 160 224 160
WIRE 432 160 432 144
WIRE 480 160 480 -208
WIRE 480 160 432 160
WIRE 112 176 64 176
WIRE -1088 192 -1184 192
WIRE -880 192 -880 160
WIRE -640 192 -752 192
WIRE -576 192 -640 192
WIRE -384 192 -384 160
WIRE -384 192 -496 192
WIRE -160 192 -160 160
WIRE -160 192 -208 192
WIRE -80 224 -208 224
WIRE -80 240 -80 224
WIRE 112 240 112 176
WIRE 112 240 -80 240
WIRE 224 240 112 240
WIRE 368 240 368 192
WIRE 368 240 224 240
WIRE -640 272 -640 192
WIRE -640 272 -880 272
WIRE 112 272 112 240
WIRE -1184 288 -1184 192
WIRE -752 304 -752 224
WIRE -80 304 -80 240
WIRE -80 304 -752 304
FLAG -208 -48 0
FLAG -432 464 0
FLAG -992 -32 0
FLAG -752 32 0
FLAG -1184 288 0
FLAG -1200 -400 0
FLAG 112 272 0
FLAG 480 -288 0
SYMBOL SHT40I_HD1B_R2 -64 192 R0
SYMATTR InstName U1
SYMBOL res -480 176 R90
WINDOW 0 0 56 VBottom 2
WINDOW 3 32 56 VTop 2
SYMATTR InstName R1
SYMATTR Value 10k
SYMBOL res -896 176 R0
SYMATTR InstName R2
SYMATTR Value 250k
SYMBOL voltage -432 368 R0
WINDOW 123 0 0 Left 0
WINDOW 39 0 0 Left 0
SYMATTR InstName V3
SYMATTR Value SINE(0 5 0.05)
SYMBOL res -688 -80 R90
WINDOW 0 0 56 VBottom 2
WINDOW 3 32 56 VTop 2
SYMATTR InstName R3
SYMATTR Value 5000
SYMBOL res -800 -80 R90
WINDOW 0 0 56 VBottom 2
WINDOW 3 32 56 VTop 2
SYMATTR InstName R4
SYMATTR Value 2700
SYMBOL res -512 -80 R90
WINDOW 0 0 56 VBottom 2
WINDOW 3 32 56 VTop 2
SYMATTR InstName R5
SYMATTR Value 7700
SYMBOL LM321LV -208 144 R180
SYMATTR InstName U2
SYMATTR ModelFile C:\Users\Antoine\Documents\GitHub\VMC\LTspice\VMC\lm321lv.lib
SYMBOL LM321LV -752 144 R180
SYMATTR InstName U3
SYMATTR ModelFile C:\Users\Antoine\Documents\GitHub\VMC\LTspice\VMC\lm321lv.lib
SYMBOL voltage -1200 -240 R180
WINDOW 0 24 96 Left 2
WINDOW 3 24 16 Left 2
WINDOW 123 0 0 Left 0
WINDOW 39 24 68 Left 2
SYMATTR InstName V2
SYMATTR Value 12
SYMATTR SpiceLine Rser=1
SYMBOL RFD16N06LESM -1088 160 R0
WINDOW 3 48 64 Top 2
SYMATTR InstName U5
SYMATTR ModelFile C:\Users\Antoine\Documents\GitHub\VMC\LTspice\VMC\MOS.lib
SYMBOL res -1216 16 R0
SYMATTR InstName R6
SYMATTR Value 83.3
SYMBOL res 208 144 R0
SYMATTR InstName R7
SYMATTR Value 50
SYMBOL voltage 480 -192 R180
WINDOW 0 24 96 Left 2
WINDOW 3 24 16 Left 2
WINDOW 123 0 0 Left 0
WINDOW 39 24 68 Left 2
SYMATTR InstName V1
SYMATTR Value 12
SYMBOL RT9161-50GV 288 176 R0
SYMATTR InstName U6
TEXT -232 -368 Left 2 !.include SHT40I_model.sub\n.include RT9161-50GV.lib\n.param RH=55\nX1 VRH VDD VSS SHT40I_HD1B_R2
TEXT -512 -336 Left 2 !.tran 10s
