Version 4.1
SHEET 1 880 680
WIRE 240 -128 -304 -128
WIRE -1200 -80 -1200 -144
WIRE -896 -64 -992 -64
WIRE -784 -64 -816 -64
WIRE -656 -64 -704 -64
WIRE -608 -64 -656 -64
WIRE -304 -64 -304 -128
WIRE -304 -64 -528 -64
WIRE -992 -32 -992 -64
WIRE -128 16 -384 16
WIRE -752 96 -752 32
WIRE -208 96 -208 -48
WIRE 240 112 240 -128
WIRE 240 112 80 112
WIRE 400 112 240 112
WIRE -1200 128 -1200 0
WIRE -1088 128 -1200 128
WIRE -656 128 -656 -64
WIRE -656 128 -752 128
WIRE -128 128 -128 16
WIRE -128 128 -208 128
WIRE 240 128 240 112
WIRE 80 144 80 112
WIRE 80 144 64 144
WIRE -880 160 -992 160
WIRE -848 160 -880 160
WIRE -384 160 -384 16
WIRE -304 160 -384 160
WIRE -64 160 -160 160
WIRE 80 176 64 176
WIRE -1088 192 -1184 192
WIRE -880 192 -880 160
WIRE -640 192 -752 192
WIRE -576 192 -640 192
WIRE -384 192 -384 160
WIRE -384 192 -496 192
WIRE -160 192 -160 160
WIRE -160 192 -208 192
WIRE 80 208 80 176
WIRE 192 208 80 208
WIRE 240 208 192 208
WIRE -80 224 -208 224
WIRE 192 240 192 208
WIRE -640 272 -640 192
WIRE -640 272 -880 272
WIRE -80 272 -80 224
WIRE 400 272 400 112
WIRE 400 272 -80 272
WIRE -1184 288 -1184 192
WIRE -752 304 -752 224
WIRE -80 304 -80 272
WIRE -80 304 -752 304
FLAG 192 240 0
FLAG -208 -48 0
FLAG -432 464 0
FLAG -992 -32 0
FLAG -752 32 0
FLAG -1184 288 0
FLAG -1200 -144 0
SYMBOL voltage 240 112 R0
WINDOW 123 0 0 Left 0
WINDOW 39 24 124 Left 2
SYMATTR SpiceLine Rser=1
SYMATTR InstName V1
SYMATTR Value 5
SYMBOL SHT40I_HD1B_R2 -64 192 R0
SYMATTR InstName U1
SYMBOL res -480 176 R90
WINDOW 0 0 56 VBottom 2
WINDOW 3 32 56 VTop 2
SYMATTR InstName R1
SYMATTR Value 10k
SYMBOL res -896 176 R0
SYMATTR InstName R2
SYMATTR Value 250k
SYMBOL voltage -432 368 R0
WINDOW 123 0 0 Left 0
WINDOW 39 0 0 Left 0
SYMATTR InstName V3
SYMATTR Value SINE(0 5 0.05)
SYMBOL res -688 -80 R90
WINDOW 0 0 56 VBottom 2
WINDOW 3 32 56 VTop 2
SYMATTR InstName R3
SYMATTR Value 5000
SYMBOL res -800 -80 R90
WINDOW 0 0 56 VBottom 2
WINDOW 3 32 56 VTop 2
SYMATTR InstName R4
SYMATTR Value 2700
SYMBOL res -512 -80 R90
WINDOW 0 0 56 VBottom 2
WINDOW 3 32 56 VTop 2
SYMATTR InstName R5
SYMATTR Value 7700
SYMBOL LM321LV -208 144 R180
SYMATTR InstName U2
SYMATTR ModelFile C:\Users\Antoine\Documents\GitHub\VMC\LTspice\VMC\lm321lv.lib
SYMBOL LM321LV -752 144 R180
SYMATTR InstName U3
SYMATTR ModelFile C:\Users\Antoine\Documents\GitHub\VMC\LTspice\VMC\lm321lv.lib
SYMBOL voltage -1200 16 R180
WINDOW 0 24 96 Left 2
WINDOW 3 24 16 Left 2
WINDOW 123 0 0 Left 0
WINDOW 39 24 68 Left 2
SYMATTR InstName V2
SYMATTR Value 12
SYMATTR SpiceLine Rser=1
SYMBOL RFD16N06LESM -1088 160 R0
WINDOW 3 48 64 Top 2
SYMATTR InstName U5
SYMATTR ModelFile C:\Users\Antoine\Documents\GitHub\VMC\LTspice\VMC\MOS.lib
TEXT -232 -368 Left 2 !.include SHT40I_model.sub\n.param RH=40\nX1 VRH VDD VSS SHT40I_HD1B_R2
TEXT -512 -336 Left 2 !.tran 10s
