Version 4.1
SHEET 1 880 680
WIRE -784 -64 -784 -112
WIRE -688 -64 -784 -64
WIRE -688 16 -688 -64
WIRE -688 16 -752 16
WIRE -128 16 -384 16
WIRE -784 48 -784 16
WIRE -640 48 -784 48
WIRE -752 96 -752 16
WIRE -208 96 -208 -48
WIRE 240 112 80 112
WIRE 400 112 240 112
WIRE -640 128 -640 48
WIRE -640 128 -752 128
WIRE -128 128 -128 16
WIRE -128 128 -208 128
WIRE 240 128 240 112
WIRE 80 144 80 112
WIRE 80 144 64 144
WIRE -848 160 -880 160
WIRE -384 160 -384 16
WIRE -304 160 -384 160
WIRE -64 160 -160 160
WIRE 80 176 64 176
WIRE -880 192 -880 160
WIRE -640 192 -752 192
WIRE -576 192 -640 192
WIRE -448 192 -496 192
WIRE -384 192 -384 160
WIRE -160 192 -160 160
WIRE -160 192 -208 192
WIRE 80 208 80 176
WIRE 192 208 80 208
WIRE 240 208 192 208
WIRE -80 224 -208 224
WIRE 192 240 192 208
WIRE -640 272 -640 192
WIRE -640 272 -880 272
WIRE -80 272 -80 224
WIRE 400 272 400 112
WIRE 400 272 -80 272
WIRE -752 304 -752 224
WIRE -80 304 -80 272
WIRE -80 304 -752 304
FLAG 192 240 0
FLAG -208 -48 0
FLAG -784 -112 0
FLAG -448 272 0
SYMBOL voltage 240 112 R0
WINDOW 123 0 0 Left 0
WINDOW 39 24 124 Left 2
SYMATTR SpiceLine Rser=1
SYMATTR InstName V1
SYMATTR Value 5
SYMBOL SHT40I_HD1B_R2 -64 192 R0
SYMATTR InstName U1
SYMBOL LMV321A -224 144 R180
SYMATTR InstName U3
SYMBOL LMV321A -768 144 R180
SYMATTR InstName U2
SYMBOL voltage -784 32 R180
WINDOW 0 24 96 Left 2
WINDOW 3 24 16 Left 2
WINDOW 123 0 0 Left 0
WINDOW 39 24 68 Left 2
SYMATTR InstName V2
SYMATTR Value 2
SYMATTR SpiceLine Rser=1
SYMBOL res -480 176 R90
WINDOW 0 0 56 VBottom 2
WINDOW 3 32 56 VTop 2
SYMATTR InstName R1
SYMATTR Value 10k
SYMBOL res -896 176 R0
SYMATTR InstName R2
SYMATTR Value 200k
SYMBOL voltage -448 176 R0
WINDOW 123 0 0 Left 0
WINDOW 39 0 0 Left 0
SYMATTR InstName V3
SYMATTR Value SINE(0 5 0.05)
TEXT -224 -224 Left 2 !.include SHT40I_model.sub\n.param RH=55\nX1 VRH VDD VSS SHT40I_HD1B_R2
TEXT -544 -200 Left 2 !.tran 0 10s 0 1s
